/*--------------------------------*- C++ -*----------------------------------*\
| =========                 |                                                 |
| \\      /  F ield         | OpenFOAM: The Open Source CFD Toolbox           |
|  \\    /   O peration     | Version:  5                                     |
|   \\  /    A nd           | Web:      www.OpenFOAM.org                      |
|    \\/     M anipulation  |                                                 |
\*---------------------------------------------------------------------------*/
FoamFile
{
    version     2.0;
    format      ascii;
    class       dictionary;
    location    "constant";
    object      thermophysicalProperties;
}
// * * * * * * * * * * * * * * * * * * * * * * * * * * * * * * * * * * * * * //

thermoType
{
    type            hePsiThermo; // heRhoThermo; // 
    mixture         pureMixture;
    transport       const; // sutherland; // 
    thermo          hConst; // eConst; // 
    equationOfState perfectGas;
    specie          specie;
    energy          sensibleEnthalpy; // sensibleInternalEnergy; // 
}

//pRef		100000;

mixture
{
    specie
    {
        molWeight   28.9;
    }

    thermodynamics
    {
        Cp          1007;
        Cv          712;
        Hf          0;
    }

    transport
    {
        mu              1.8e-05;
        Pr              0.7;
    }
/*
    transport
    {
        As          1.4792e-06;
        Ts          116;
    }
*/
}


// ************************************************************************* //
