/*--------------------------------*- C++ -*----------------------------------*\
| =========                 |                                                 |
| \\      /  F ield         | OpenFOAM: The Open Source CFD Toolbox           |
|  \\    /   O peration     | Version:  1.7.0                                 |
|   \\  /    A nd           | Web:      www.OpenFOAM.com                      |
|    \\/     M anipulation  |                                                 |
\*---------------------------------------------------------------------------*/
FoamFile
{
    version     2.0;
    format      ascii;
    class       dictionary;
    location    "system";
    object      fvSolution;
}
// * * * * * * * * * * * * * * * * * * * * * * * * * * * * * * * * * * * * * //
/*
solvers
{
	//Needed for implicit solve of alpha1 in phase change code
    alpha1
    {
        maxUnboundedness 1e-5;
        CoCoeff          2;
        maxIter          5;
        nLimiterIter     2;
        cAlpha           1.5;

        solver           PBiCG;
        preconditioner   DILU;
        tolerance        1e-12;
        relTol           1E-6;
    };

    pcorr
    {
        solver          PCG;
        preconditioner
        {
            preconditioner  GAMG;
            tolerance       1e-07;
            relTol          0;
            smoother        DICGaussSeidel;
            nPreSweeps      0;
            nPostSweeps     2;
            nFinestSweeps   2;
            cacheAgglomeration false;
            nCellsInCoarsestLevel 10;
            agglomerator    faceAreaPair;
            mergeLevels     1;
        }
        tolerance       1e-07;
        relTol          0;
        maxIter         100;
    }

    p_rgh
    {
        solver          GAMG;
        tolerance       1e-08;
        relTol          1E-8;
        smoother        DICGaussSeidel;
        nPreSweeps      0;
        nPostSweeps     2;
        cacheAgglomeration true;
        nCellsInCoarsestLevel 10;
        agglomerator    faceAreaPair;
        mergeLevels     1;
		maxIter			25;
    }

    p_rghFinal
    {
        solver          PCG;
        preconditioner
        {
            preconditioner  GAMG;
            tolerance       1e-08;
            relTol          0;
            nVcycles        2;
            smoother        DICGaussSeidel;
            nPreSweeps      0;
            nPostSweeps     2;
            nFinestSweeps   2;
            cacheAgglomeration false;
            nCellsInCoarsestLevel 10;
            agglomerator    faceAreaPair;
            mergeLevels     1;
        }
        tolerance       1e-08;
        relTol          0;
        maxIter         25;
    }

    "U"
    {
        solver          PBiCG;
        preconditioner  DILU;
        tolerance       1e-08;
        relTol          0;
    }

    R
    {
        solver          PBiCG;
        preconditioner  DILU;
        tolerance       1e-08;
        relTol          0;
    }


    H
    {
        solver          PBiCG;
        preconditioner  DILU;
        tolerance       1e-08;
        relTol          0;
    }

}

PIMPLE
{
    momentumPredictor no;
    nOuterCorrectors 1;
    nCorrectors     2;
    nNonOrthogonalCorrectors 1;
    nAlphaCorr      1;
    nAlphaSubCycles 3;
    nEnergyLoops    3;

    pRefCell        0;
    pRefValue       0;
}

relaxationFactors
{
    "U.*"                      1;
}
*/

solvers
{
p_rgh
{
    solver          GAMG;
    tolerance       1e-06;
    relTol          0.01;
    smoother        DIC;
    cacheAgglomeration true;
    nCellsInCoarsestLevel 10;
    agglomerator    faceAreaPair;
    mergeLevels     1;
}

p
{
    solver          GAMG;
    tolerance       1e-06;
    relTol          0.01;
    smoother        DIC;
    cacheAgglomeration true;
    nCellsInCoarsestLevel 10;
    agglomerator    faceAreaPair;
    mergeLevels     1;
}

"(U|k|epsilon|omega|R|T|w_w|w_c|nuTilda)"
{

    solver          PBiCG;
    preconditioner  DILU;
    tolerance       1e-05;
    relTol          0.01;
/*
        solver           smoothSolver;
        smoother         GaussSeidel;
        tolerance        1e-8;
        relTol           0.1;
        nSweeps          1;
*/
}
}

SIMPLE
{
    nNonOrthogonalCorrectors 0;
    pRefCell 0;
    pRefValue 0;

    residualControl
    {
        p               1e-5;
        T                   1e-6;
        w_c                 1e-6;
        w_w                 1e-6;
        U                   1e-6;
        "(k|epsilon|omega|nuTilda)" 1e-6;
    }
}

relaxationFactors
{
    p           0.7;
    U               0.5;
    T               0.5;
    w_c             0.5;
    w_w             0.5;
    "(k|epsilon|nuTilda|omega|R)" 0.5;
}

// ************************************************************************* //
