/*--------------------------------*- C++ -*----------------------------------*\
| =========                 |                                                 |
| \\      /  F ield         | OpenFOAM: The Open Source CFD Toolbox           |
|  \\    /   O peration     | Version:  2.4.0                                 |
|   \\  /    A nd           | Web:      www.OpenFOAM.org                      |
|    \\/     M anipulation  |                                                 |
\*---------------------------------------------------------------------------*/
FoamFile
{
    version     2.0;
    format      ascii;
    class       polyBoundaryMesh;
    location    "constant/polyMesh";
    object      boundary;
}
// * * * * * * * * * * * * * * * * * * * * * * * * * * * * * * * * * * * * * //

6
(
    defaultFaces
    {
        type            empty;
        nFaces          0;
        startFace       114208;
    }
    outlet
    {
        type            patch;
        nFaces          256;
        startFace       114208;
    }
    front
    {
        type            empty;
        nFaces          57344;
        startFace       114464;
    }
    back
    {
        type            empty;
        nFaces          57344;
        startFace       171808;
    }
    wing
    {
        type            wall;
        nFaces          256;
        startFace       229152;
    }
    inlet
    {
        type            patch;
        nFaces          448;
        startFace       229408;
    }
)

// ************************************************************************* //
