/*--------------------------------*- C++ -*----------------------------------*\
| =========                 |                                                 |
| \\      /  F ield         | OpenFOAM: The Open Source CFD Toolbox           |
|  \\    /   O peration     | Version:  5                                     |
|   \\  /    A nd           | Web:      www.OpenFOAM.org                      |
|    \\/     M anipulation  |                                                 |
\*---------------------------------------------------------------------------*/
FoamFile
{
    version     2.0;
    format      ascii;
    class       volScalarField;
    object      p;
}
// * * * * * * * * * * * * * * * * * * * * * * * * * * * * * * * * * * * * * //

dimensions      [0 2 -2 -1 0 0 0];

internalField   uniform 1004;

boundaryField
{
    in
    {
	type		calculated;
	value		$internalField;
    }

    out
    {
	type		calculated;
	value		$internalField;
    }

    bottom
    {
	type		calculated;
	value		$internalField;
    }

    top
    {
	type		empty;
    }

    frontAndBack
    {
	type		empty;
    }
}

// ************************************************************************* //
