/*--------------------------------*- C++ -*----------------------------------*\
| =========                 |                                                 |
| \\      /  F ield         | OpenFOAM: The Open Source CFD Toolbox           |
|  \\    /   O peration     | Version:  3.0.0                                 |
|   \\  /    A nd           | Web:      www.OpenFOAM.org                      |
|    \\/     M anipulation  |                                                 |
\*---------------------------------------------------------------------------*/
FoamFile
{
    version     2.0;
    format      ascii;
    class       dictionary;
    location    "constant";
    object      fvOptions;
}
// * * * * * * * * * * * * * * * * * * * * * * * * * * * * * * * * * * * * * //


ice1
    {
        //type            solidificationMeltingSource;
        type            mySolidificationMeltingSource;
        active          on; //yes;
        selectionMode   cellZone;
        cellZone        ice; //solid;
    /*    
        solidificationMeltingSourceCoeffs
        {
            //selectionMode   cellZone;
            //cellZone        ice; //solid;
            Tmelt           273.3;
            L               334000;
            thermoMode      thermo;
            beta            50e-6;
            rhoRef          916.8; //999;
            //Cu              1e+08;
            //q               1.0e-06;
        }

*/
        mySolidificationMeltingSourceCoeffs
        {
            //selectionMode   cellZone;
            //cellZone        ice;
            Tliq     	    278;
	    Tsol	    273;
            L               334000;
            thermoMode      thermo;
            beta            50e-6;
            rhoRef          916.8; //999;
            Cu              1e+06;
            q               1.0e-03;
        }

    }


// ************************************************************************* //
